Version 4
SHEET 1 880 680
WIRE -80 -16 -80 -32
WIRE 16 -16 -80 -16
WIRE 160 -16 160 -32
WIRE 160 -16 96 -16
WIRE -80 0 -80 -16
WIRE 160 16 160 -16
WIRE -80 112 -80 80
WIRE 160 112 160 80
WIRE 160 112 -80 112
WIRE -80 128 -80 112
WIRE 160 128 160 112
FLAG -80 128 0
FLAG -80 -32 source
FLAG 160 -32 component
SYMBOL res 112 -32 R90
WINDOW 0 0 56 VBottom 2
WINDOW 3 32 56 VTop 2
SYMATTR InstName R1
SYMATTR Value 1000
SYMBOL voltage -80 -16 R0
WINDOW 123 0 0 Left 0
WINDOW 39 0 0 Left 0
WINDOW 3 -191 115 Left 2
SYMATTR Value PULSE(0 5 0 1n 1n 500u 1000u)
SYMATTR InstName V1
SYMBOL cap 144 16 R0
SYMATTR InstName C1
SYMATTR Value 30n
TEXT -112 152 Left 2 !.tran 0 1000m 990m
